Circuit: * \\khensu\Home02\robekeya\My Documents\School\ECE 421\Project\Spice\CB-Isolation-Amp-Zin.asc

Direct Newton iteration for .op point succeeded.
.step zo=50
.step zo=55.5
.step zo=56.4

Date: Wed Nov 20 16:27:35 2019
Total elapsed time: 1.707 seconds.

tnom = 27
temp = 27
method = trap
totiter = 7
traniter = 0
tranpoints = 0
accept = 0
rejected = 0
matrix size = 12
fillins = 0
solver = Normal
Matrix Compiler1:      36 opcodes
Matrix Compiler2: 920 bytes object code size
